# `model_configure` generated with NEMSpy 0.6.21
total_member:            1
print_esmf:              .true.
namelist:                atm_namelist.rc
PE_MEMBER01:             782
start_year:              2020
start_month:             6
start_day:               1
start_hour:              0
start_minute:            0
start_second:            0
nhours_fcst:             24
RUN_CONTINUE:            .false.
ENS_SPS:                 .false.
